&nam_rebuild
filebase='_0000.nc'
ndomain=72
/
